converter/opendss_cases/34Bus/ieee34-1_Curr_Elem.txt

CIRCUIT ELEMENT CURRENTS

(Currents into element from indicated bus)

Power Delivery Elements

  Bus Phase    Magnitude, A     Angle      (Real)   +j  (Imag)

ELEMENT = "Vsource.source"
SOURCEBUS     1           16.775 /_ -162.7 =    -16.015 +j   -4.9904
SOURCEBUS     2           14.963 /_   83.4 =     1.7156 +j    14.864
SOURCEBUS     3           17.377 /_  -34.6 =       14.3 +j   -9.8739
------------
SOURCEBUS     0           16.775 /_   17.3 =     16.015 +j    4.9904
SOURCEBUS     0           14.963 /_  -96.6 =    -1.7156 +j   -14.864
SOURCEBUS     0           17.377 /_  145.4 =      -14.3 +j    9.8739

ELEMENT = "Transformer.subxf"
SOURCEBUS     1           16.775 /_   17.3 =     16.015 +j    4.9904
SOURCEBUS     2           14.963 /_  -96.6 =    -1.7156 +j   -14.864
SOURCEBUS     3           17.377 /_  145.4 =      -14.3 +j    9.8739
SOURCEBUS     0                0 /_    0.0 =          0 +j         0
SOURCEBUS Resid       1.6464E-10 /_ -135.0 =   -1.1642E-10 +j -1.1642E-10
------------
800      1           51.186 /_  167.3 =    -49.942 +j    11.218
800      2           44.294 /_   52.6 =     26.925 +j    35.171
800      3           40.716 /_  -62.7 =     18.692 +j   -36.172
800      0           11.095 /_  -67.1 =      4.325 +j   -10.217
800  Resid        1.4908E-9 /_  -38.7 =   1.1642E-9 +j -9.3132E-10

ELEMENT = "Line.l1"
800      1           51.186 /_  -12.7 =     49.942 +j   -11.218
800      2           44.294 /_ -127.4 =    -26.925 +j   -35.171
800      3           40.716 /_  117.3 =    -18.692 +j    36.172
800  Resid           11.095 /_  112.9 =      -4.325 +j    10.217
------------
802      1             51.2 /_  167.3 =    -49.945 +j    11.267
802      2           44.294 /_   52.5 =     26.962 +j    35.143
802      3           40.721 /_  -62.7 =     18.657 +j   -36.195
802  Resid           11.093 /_  -67.0 =      4.3271 +j   -10.215

ELEMENT = "Line.l2"
802      1             51.2 /_  -12.7 =     49.945 +j   -11.267
802      2           43.245 /_ -127.0 =    -26.032 +j   -34.531
802      3           39.873 /_  117.9 =    -18.645 +j    35.245
802  Resid           11.795 /_  116.5 =     -5.2679 +j    10.553
------------
806      1            51.21 /_  167.3 =    -49.948 +j    11.299
806      2           43.244 /_   52.9 =     26.057 +j    34.513
806      3           39.875 /_  -62.2 =     18.622 +j    -35.26
806  Resid           11.794 /_  -63.5 =      5.2693 +j   -10.552

ELEMENT = "Line.l3"
806      1            51.21 /_  -12.7 =     49.948 +j   -11.299
806      2           42.197 /_ -126.5 =    -25.126 +j   -33.901
806      3           39.031 /_  118.5 =     -18.61 +j    34.309
806  Resid           12.538 /_  119.7 =      -6.211 +j    10.891
------------
808      1           51.382 /_  166.6 =    -49.986 +j    11.897
808      2            42.19 /_   52.7 =     25.575 +j    33.554
808      3           39.074 /_  -62.3 =     18.174 +j    -34.59
808  Resid           12.525 /_  -60.1 =      6.2371 +j   -10.861

ELEMENT = "Line.l4"
808      2          0.59757 /_ -142.3 =   -0.47296 +j  -0.36524
------------
810      2           0.6259 /_   31.8 =    0.53192 +j   0.32988

ELEMENT = "Line.l5"
808      1           51.382 /_  -13.4 =     49.986 +j   -11.897
808      2           41.029 /_ -126.8 =     -24.57 +j   -32.859
808      3           39.074 /_  117.7 =    -18.174 +j     34.59
808  Resid           12.482 /_  125.5 =      -7.242 +j    10.166
------------
812      1           51.576 /_  165.9 =     -50.02 +j    12.572
812      2           41.016 /_   52.3 =     25.076 +j    32.458
812      3           39.122 /_  -63.1 =     17.672 +j   -34.903
812  Resid           12.468 /_  -54.3 =      7.2721 +j   -10.127

ELEMENT = "Line.l6"
812      1           51.576 /_  -14.1 =      50.02 +j   -12.572
812      2           41.016 /_ -127.7 =    -25.076 +j   -32.458
812      3           39.122 /_  116.9 =    -17.672 +j    34.903
812  Resid           12.468 /_  125.7 =     -7.2721 +j    10.127
------------
814      1           51.725 /_  165.3 =    -50.041 +j    13.092
814      2           41.007 /_   51.6 =     25.466 +j    32.142
814      3           39.159 /_  -63.8 =     17.279 +j   -35.141
814  Resid           12.453 /_  -54.1 =      7.2956 +j   -10.093

ELEMENT = "Line.l7"
814R     1           48.116 /_  -14.7 =      46.55 +j   -12.177
814R     2           39.765 /_ -128.4 =    -24.693 +j   -31.168
814R     3           37.973 /_  116.2 =    -16.757 +j    34.075
814R Resid            10.58 /_  118.8 =     -5.0997 +j    9.2703
------------
850      1           48.116 /_  165.3 =     -46.55 +j    12.178
850      2           39.765 /_   51.6 =     24.693 +j    31.168
850      3           37.973 /_  -63.8 =     16.757 +j   -34.075
850  Resid            10.58 /_  -61.2 =      5.0997 +j   -9.2703

ELEMENT = "Line.l8"
816      1           13.004 /_  -26.7 =     11.616 +j   -5.8452
------------
818      1           13.012 /_  153.2 =    -11.616 +j    5.8652

ELEMENT = "Line.l9"
816      1           35.504 /_  -10.3 =     34.934 +j   -6.3378
816      2            39.66 /_ -128.4 =    -24.653 +j   -31.066
816      3           37.904 /_  116.3 =    -16.797 +j    33.979
816  Resid           7.3616 /_   27.7 =      6.5164 +j    3.4248
------------
824      1           35.541 /_  169.4 =    -34.938 +j    6.5165
824      2           39.656 /_   51.3 =     24.783 +j    30.958
824      3           37.917 /_  -63.9 =     16.664 +j   -34.059
824  Resid           7.3506 /_ -152.3 =     -6.5088 +j   -3.4158

ELEMENT = "Line.l10"
818      1           11.669 /_  -26.6 =     10.438 +j   -5.2163
------------
820      1           11.908 /_  151.0 =    -10.415 +j    5.7726

ELEMENT = "Line.l11"
820      1            5.271 /_  -28.2 =     4.6433 +j   -2.4947
------------
822      1           5.3413 /_  150.2 =    -4.6368 +j    2.6514

ELEMENT = "Line.l12"
824      2           1.5399 /_ -148.3 =    -1.3107 +j  -0.80828
------------
826      2           1.5554 /_   30.5 =     1.3404 +j   0.78901

ELEMENT = "Line.l13"
824      1           35.541 /_  -10.6 =     34.938 +j   -6.5165
824      2           36.662 /_ -127.0 =    -22.087 +j   -29.263
824      3           37.709 /_  116.3 =    -16.706 +j    33.807
824  Resid           4.3297 /_   27.1 =      3.8545 +j    1.9722
------------
828      1           35.544 /_  169.4 =    -34.939 +j    6.5311
828      2           36.662 /_   52.9 =     22.098 +j    29.254
828      3            37.71 /_  -63.7 =     16.695 +j   -33.813
828  Resid           4.3288 /_ -152.9 =     -3.8538 +j   -1.9715

ELEMENT = "Line.l14"
828      1            35.29 /_  -10.5 =     34.702 +j   -6.4175
828      2           36.662 /_ -127.1 =    -22.098 +j   -29.254
828      3           37.571 /_  116.4 =    -16.692 +j    33.659
828  Resid           4.5559 /_   26.2 =      4.0876 +j    2.0118
------------
830      1           35.364 /_  169.0 =     -34.71 +j    6.7703
830      2           36.646 /_   52.4 =     22.354 +j    29.039
830      3           37.594 /_  -64.1 =     16.428 +j   -33.815
830  Resid           4.5339 /_ -153.9 =     -4.0719 +j   -1.9941

ELEMENT = "Line.l15"
830      1           33.897 /_   -9.8 =       33.4 +j   -5.7839
830      2           35.929 /_ -127.1 =    -21.684 +j   -28.647
830      3           36.285 /_  116.2 =    -16.028 +j    32.554
830  Resid           4.7035 /_   23.5 =      4.3125 +j    1.8774
------------
854      1           33.899 /_  170.2 =      -33.4 +j    5.7928
854      2           35.928 /_   52.9 =     21.691 +j    28.642
854      3           36.286 /_  -63.8 =     16.021 +j   -32.558
854  Resid           4.7029 /_ -156.5 =     -4.3121 +j    -1.877

ELEMENT = "Line.l16"
832      1           20.952 /_    1.0 =     20.949 +j   0.35417
832      2           23.176 /_ -116.2 =    -10.241 +j   -20.791
832      3             24.1 /_  128.5 =    -15.008 +j    18.857
832  Resid           4.5806 /_   20.2 =      4.2996 +j    1.5795
------------
858      1           20.952 /_ -179.3 =     -20.95 +j   -0.2666
858      2           23.155 /_   63.6 =     10.303 +j    20.736
858      3           24.088 /_  -51.7 =     14.942 +j   -18.894
858  Resid            4.575 /_ -159.9 =     -4.2951 +j   -1.5757

ELEMENT = "Line.l17"
834      1            8.473 /_  -39.8 =     6.5143 +j   -5.4181
834      2            8.371 /_ -155.5 =    -7.6191 +j   -3.4675
834      3           7.8938 /_   95.0 =    -0.6899 +j    7.8636
834  Resid           2.0653 /_   29.7 =      1.7947 +j     1.022
------------
860      1           8.4962 /_  140.1 =    -6.5145 +j    5.4541
860      2            8.385 /_   24.3 =     7.6446 +j    3.4451
860      3           7.9066 /_  -85.2 =    0.66279 +j   -7.8788
860  Resid           2.0629 /_ -150.4 =     -1.7928 +j   -1.0204

ELEMENT = "Line.l18"
834      1           14.761 /_   34.6 =     12.143 +j     8.392
834      2           16.316 /_  -95.6 =    -1.5998 +j   -16.237
834      3           15.121 /_  151.0 =    -13.228 +j     7.325
834  Resid           2.7355 /_   11.0 =      2.6855 +j   0.52032
------------
842      1           14.758 /_ -145.4 =    -12.143 +j    -8.387
842      2           16.313 /_   84.4 =     1.6034 +j    16.234
842      3           15.119 /_  -29.0 =     13.225 +j   -7.3271
842  Resid           2.7352 /_ -169.0 =     -2.6853 +j   -0.5201

ELEMENT = "Line.l19"
836      1           1.1234 /_  -27.0 =     1.0011 +j  -0.50984
836      2            1.554 /_ -154.4 =    -1.4012 +j  -0.67211
836      3           1.2606 /_   71.3 =    0.40322 +j    1.1944
836  Resid         0.012836 /_ -104.1 =   -0.0031224 +j  -0.01245
------------
840      1           1.1305 /_  152.3 =    -1.0012 +j   0.52514
840      2           1.5597 /_   25.1 =      1.412 +j   0.66259
840      3           1.2705 /_ -109.1 =   -0.41476 +j   -1.2009
840  Resid         0.013698 /_   73.4 =   0.0039218 +j  0.013124

ELEMENT = "Line.l20"
836      1        0.0049821 /_   90.4 =  -0.000035577 +j  0.004982
836      2           2.0871 /_ -149.4 =    -1.7966 +j   -1.0622
836      3        0.0043053 /_ -150.8 =  -0.0037572 +j -0.0021021
836  Resid           2.0889 /_   30.5 =      1.8004 +j    1.0593
------------
862      1       1.3117E-11 /_   56.3 =  7.276E-12 +j 1.0914E-11
862      2           2.0886 /_   30.5 =     1.8001 +j    1.0591
862      3       3.2539E-11 /_  153.4 =  -2.9104E-11 +j 1.4552E-11
862  Resid           2.0886 /_ -149.5 =     -1.8001 +j   -1.0591

ELEMENT = "Line.l21"
842      1           14.626 /_   35.9 =      11.85 +j    8.5727
842      2           16.313 /_  -95.6 =    -1.6034 +j   -16.234
842      3           15.119 /_  151.0 =    -13.225 +j    7.3271
842  Resid           2.9971 /_    6.4 =      2.9783 +j   0.33441
------------
844      1           14.612 /_ -144.2 =     -11.85 +j   -8.5486
844      2             16.3 /_   84.3 =     1.6204 +j    16.219
844      3           15.108 /_  -29.1 =     13.207 +j   -7.3372
844  Resid           2.9957 /_ -173.6 =     -2.9771 +j  -0.33335

ELEMENT = "Line.l22"
844      1           9.8408 /_   78.8 =     1.9047 +j    9.6547
844      2           9.3931 /_  -58.1 =     4.9598 +j   -7.9768
844      3            9.594 /_ -166.2 =    -9.3165 +j   -2.2907
844  Resid           2.5275 /_   14.0 =       2.452 +j   0.61283
------------
846      1           9.7773 /_ -101.2 =    -1.9051 +j   -9.5899
846      2           9.3346 /_  121.8 =    -4.9139 +j    7.9365
846      3             9.54 /_   13.7 =     9.2676 +j    2.2634
846  Resid           2.5235 /_ -166.0 =     -2.4487 +j  -0.60999

ELEMENT = "Line.l23"
846      1           9.7773 /_   78.8 =     1.9051 +j    9.5899
846      2           9.5631 /_  -47.4 =     6.4715 +j   -7.0408
846      3           9.7872 /_ -162.0 =    -9.3057 +j    -3.032
846  Resid           1.0471 /_   27.5 =      0.9291 +j   0.48299
------------
848      1            9.768 /_ -101.2 =    -1.9051 +j   -9.5804
848      2           9.5543 /_  132.6 =    -6.4648 +j     7.035
848      3           9.7792 /_   18.0 =     9.2985 +j    3.0281
848  Resid           1.0465 /_ -152.5 =     -0.9286 +j  -0.48258

ELEMENT = "Line.l24"
850      1           48.116 /_  -14.7 =      46.55 +j   -12.178
850      2           39.765 /_ -128.4 =    -24.693 +j   -31.168
850      3           37.973 /_  116.2 =    -16.757 +j    34.075
850  Resid            10.58 /_  118.8 =     -5.0997 +j    9.2703
------------
816      1           48.118 /_  165.3 =     -46.55 +j    12.183
816      2           39.764 /_   51.6 =     24.697 +j    31.165
816      3           37.973 /_  -63.8 =     16.753 +j   -34.078
816  Resid            10.58 /_  -61.2 =      5.0999 +j     -9.27

ELEMENT = "Line.l25"
852R     1           31.463 /_  -10.9 =     30.899 +j   -5.9298
852R     2           33.339 /_ -128.3 =     -20.67 +j   -26.158
852R     3            33.79 /_  115.4 =    -14.471 +j    30.534
852R Resid           4.5163 /_   20.1 =      4.2409 +j     1.553
------------
832      1           31.463 /_  169.1 =    -30.899 +j      5.93
832      2           33.338 /_   51.7 =      20.67 +j    26.157
832      3            33.79 /_  -64.6 =      14.47 +j   -30.534
832  Resid           4.5163 /_ -159.9 =     -4.2409 +j    -1.553

ELEMENT = "Transformer.xfm1"
832      1           11.677 /_  -32.3 =     9.8683 +j   -6.2435
832      2           11.702 /_ -152.8 =    -10.406 +j   -5.3536
832      3           11.609 /_   87.3 =    0.53697 +j    11.597
832      0       0.00035748 /_   40.1 =  0.00027336 +j 0.00023035
832  Resid        9.4808E-8 /_ -158.1 =   -8.7978E-8 +j -3.5333E-8
------------
888      1           69.896 /_  147.7 =    -59.067 +j    37.371
888      2           70.043 /_   27.2 =     62.283 +j    32.044
888      3           69.488 /_  -92.7 =     -3.214 +j   -69.414
888      0        0.0021397 /_ -139.9 =  -0.0016362 +j -0.0013788
888  Resid        5.6753E-7 /_ -158.1 =   -5.2665E-7 +j -2.115E-7

ELEMENT = "Line.l26"
854      2          0.24238 /_  -68.5 =   0.088811 +j  -0.22553
------------
856      2          0.15576 /_   30.0 =    0.13488 +j  0.077898

ELEMENT = "Line.l27"
854      1           33.899 /_   -9.8 =       33.4 +j   -5.7928
854      2           35.659 /_ -127.4 =    -21.645 +j   -28.338
854      3           36.286 /_  116.2 =    -16.021 +j    32.558
854  Resid            4.547 /_   20.2 =      4.2661 +j    1.5736
------------
852      1            34.02 /_  169.1 =     -33.41 +j     6.413
852      2           35.631 /_   51.7 =     22.092 +j    27.955
852      3           36.324 /_  -64.6 =     15.555 +j   -32.825
852  Resid           4.5089 /_ -160.0 =     -4.2367 +j    -1.543

ELEMENT = "Line.l28"
858      1         0.068733 /_  -15.3 =    0.06631 +j -0.018088
------------
864      1         0.075157 /_  150.2 =  -0.065225 +j  0.037341

ELEMENT = "Line.l29"
858      1           20.524 /_    1.7 =     20.514 +j   0.61658
858      2           22.766 /_ -116.1 =    -10.017 +j   -20.444
858      3           23.636 /_  129.3 =    -14.983 +j     18.28
858  Resid           4.7449 /_   19.0 =      4.4856 +j    1.5469
------------
834      1           20.522 /_ -178.6 =    -20.515 +j  -0.51265
834      2           22.741 /_   63.7 =     10.091 +j    20.379
834      3            23.62 /_  -50.9 =     14.904 +j   -18.324
834  Resid           4.7383 /_ -161.0 =     -4.4802 +j   -1.5423

ELEMENT = "Line.l30"
860      1           2.8075 /_  -27.1 =        2.5 +j   -1.2774
860      2           5.1742 /_ -152.8 =    -4.6012 +j   -2.3667
860      3           2.6126 /_   83.4 =    0.30145 +j    2.5952
860  Resid           2.0831 /_   30.2 =      1.7997 +j     1.049
------------
836      1           2.8298 /_  152.1 =    -2.5004 +j    1.3251
836      2           5.1909 /_   26.8 =      4.635 +j     2.337
836      3            2.637 /_  -97.4 =   -0.33741 +j   -2.6153
836  Resid           2.0799 /_ -149.8 =     -1.7973 +j   -1.0469

ELEMENT = "Line.l31"
862      2           1.0321 /_ -148.0 =   -0.87561 +j  -0.54639
------------
838      2           1.0573 /_   29.0 =    0.92466 +j   0.51277

ELEMENT = "Line.l32"
888      1           69.896 /_  -32.3 =     59.067 +j   -37.371
888      2           70.043 /_ -152.8 =    -62.283 +j   -32.044
888      3           69.488 /_   87.3 =      3.214 +j    69.414
888  Resid        0.0021403 /_   40.1 =   0.0016368 +j  0.001379
------------
890      1           69.912 /_  147.7 =    -59.067 +j    37.401
890      2           70.053 /_   27.2 =     62.304 +j    32.025
890      3           69.501 /_  -92.7 =    -3.2372 +j   -69.426
890  Resid       2.9158E-13 /_  133.0 =   -1.9895E-13 +j 2.1316E-13

ELEMENT = "Capacitor.c844"
844      1           7.1773 /_   86.7 =    0.41624 +j    7.1652
844      2           7.1669 /_  -34.5 =     5.9099 +j   -4.0543
844      3           7.1733 /_ -154.0 =    -6.4456 +j   -3.1479
844  Resid           0.1251 /_   17.2 =     0.11949 +j  0.037063
------------
844      0           7.1773 /_  -93.3 =   -0.41624 +j   -7.1652
844      0           7.1669 /_  145.5 =    -5.9099 +j    4.0543
844      0           7.1733 /_   26.0 =     6.4456 +j    3.1479
844  Resid           0.1251 /_ -162.8 =    -0.11949 +j -0.037063

ELEMENT = "Capacitor.c848"
848      1           10.769 /_   86.6 =    0.63403 +j     10.75
848      2            10.75 /_  -34.5 =     8.8593 +j   -6.0897
848      3           10.763 /_ -154.0 =    -9.6762 +j   -4.7137
848  Resid          0.19038 /_   16.2 =     0.18282 +j  0.053107
------------
848      0           10.769 /_  -93.4 =   -0.63403 +j    -10.75
848      0            10.75 /_  145.5 =    -8.8593 +j    6.0897
848      0           10.763 /_   26.0 =     9.6762 +j    4.7137
848  Resid          0.19038 /_ -163.8 =    -0.18282 +j -0.053107

ELEMENT = "Transformer.reg1a"
814      1           51.725 /_  -14.7 =     50.041 +j   -13.092
814      0           51.725 /_  165.3 =    -50.041 +j    13.091
------------
814R     1           48.116 /_  165.3 =     -46.55 +j    12.177
814R     0           48.116 /_  -14.7 =      46.55 +j   -12.178

ELEMENT = "Transformer.reg1b"
814      2           41.007 /_ -128.4 =    -25.466 +j   -32.142
814      0           41.007 /_   51.6 =     25.466 +j    32.142
------------
814R     2           39.765 /_   51.6 =     24.693 +j    31.168
814R     0           39.765 /_ -128.4 =    -24.694 +j   -31.168

ELEMENT = "Transformer.reg1c"
814      3           39.159 /_  116.2 =    -17.279 +j    35.141
814      0           39.159 /_  -63.8 =      17.28 +j   -35.141
------------
814R     3           37.973 /_  -63.8 =     16.757 +j   -34.075
814R     0           37.973 /_  116.2 =    -16.756 +j    34.076

ELEMENT = "Transformer.reg2a"
852      1            34.02 /_  -10.9 =      33.41 +j    -6.413
852      0            34.02 /_  169.1 =     -33.41 +j    6.4123
------------
852R     1           31.463 /_  169.1 =    -30.899 +j    5.9298
852R     0           31.463 /_  -10.9 =     30.899 +j   -5.9305

ELEMENT = "Transformer.reg2b"
852      2           35.631 /_ -128.3 =    -22.092 +j   -27.955
852      0           35.631 /_   51.7 =     22.091 +j    27.955
------------
852R     2           33.339 /_   51.7 =      20.67 +j    26.158
852R     0           33.339 /_ -128.3 =     -20.67 +j   -26.157

ELEMENT = "Transformer.reg2c"
852      3           36.324 /_  115.4 =    -15.555 +j    32.825
852      0           36.324 /_  -64.6 =     15.555 +j   -32.825
------------
852R     3            33.79 /_  -64.6 =     14.471 +j   -30.534
852R     0            33.79 /_  115.4 =     -14.47 +j    30.535

= = = = = = = = = = = = = = = = = = =  = = = = = = = = = = =  = =

Power Conversion Elements

  Bus Phase    Magnitude, A     Angle      (Real)   +j  (Imag)

ELEMENT = "Load.s860"
860      1           1.7269 /_  -41.9 =     1.2844 +j   -1.1544
860      2           1.7292 /_ -163.1 =    -1.6544 +j  -0.50324
860      3           1.7278 /_   77.4 =    0.37692 +j    1.6862
860      0          0.02935 /_ -103.6 =  -0.0069233 +j -0.028522

ELEMENT = "Load.s840"
840      1          0.79311 /_  -41.2 =    0.59709 +j  -0.52202
840      2          0.79311 /_ -162.3 =   -0.75555 +j  -0.24117
840      3          0.79311 /_   78.2 =    0.16239 +j   0.77631
840      0         0.013695 /_ -106.7 =  -0.0039268 +j  -0.01312

ELEMENT = "Load.s844"
844      1           12.275 /_  -41.2 =     9.2361 +j   -8.0855
844      2           12.257 /_ -162.3 =    -11.679 +j   -3.7214
844      3           12.268 /_   78.2 =     2.5183 +j    12.007
844      0          0.21392 /_ -110.7 =  -0.075501 +j  -0.20016

ELEMENT = "Load.s848"
848      1           1.7276 /_  -42.6 =     1.2711 +j   -1.1699
848      2           1.7276 /_ -162.6 =    -1.6488 +j  -0.51575
848      3           1.7275 /_   77.4 =    0.37767 +j    1.6857

ELEMENT = "Load.s830a"
830      1          0.44829 /_    0.5 =    0.44827 +j 0.0042252
830      2          0.44829 /_ -179.5 =   -0.44827 +j -0.0042252

ELEMENT = "Load.s830b"
830      2          0.44601 /_ -119.7 =   -0.22126 +j  -0.38726
830      3          0.44601 /_   60.3 =    0.22126 +j   0.38726

ELEMENT = "Load.s830c"
830      3           1.0723 /_  125.4 =   -0.62142 +j   0.87389
830      1           1.0723 /_  -54.6 =    0.62142 +j  -0.87389

ELEMENT = "Load.s890"
890      1           69.915 /_  -32.3 =     59.069 +j   -37.402
890      2           70.055 /_ -152.8 =    -62.306 +j   -32.026
890      3           69.504 /_   87.3 =     3.2368 +j    69.428

ELEMENT = "Load.d802_806sb"
802      2           1.1127 /_ -146.6 =   -0.92926 +j  -0.61196
802      0           1.1127 /_   33.4 =    0.92926 +j   0.61196

ELEMENT = "Load.d802_806rb"
806      2           1.1137 /_ -146.7 =   -0.93062 +j  -0.61181
806      0           1.1137 /_   33.3 =    0.93062 +j   0.61181

ELEMENT = "Load.d802_806sc"
802      3          0.95052 /_   90.7 =    -0.0116 +j   0.95045
802      0          0.95052 /_  -89.3 =     0.0116 +j  -0.95045

ELEMENT = "Load.d802_806rc"
806      3          0.95144 /_   90.7 =  -0.011057 +j   0.95138
806      0          0.95144 /_  -89.3 =   0.011057 +j  -0.95138

ELEMENT = "Load.d808_810sb"
808      2          0.62592 /_ -148.2 =   -0.53195 +j  -0.32986
808      0          0.62592 /_   31.8 =    0.53195 +j   0.32986

ELEMENT = "Load.d808_810rb"
810      2           0.6259 /_ -148.2 =   -0.53192 +j  -0.32988
810      0           0.6259 /_   31.8 =    0.53192 +j   0.32988

ELEMENT = "Load.d818_820sa"
818      1           1.3444 /_  -28.9 =     1.1775 +j  -0.64885
818      0           1.3444 /_  151.1 =    -1.1775 +j   0.64885

ELEMENT = "Load.d818_820ra"
820      1           1.3132 /_  -28.9 =     1.1495 +j  -0.63492
820      0           1.3132 /_  151.1 =    -1.1495 +j   0.63492

ELEMENT = "Load.d820_822sa"
820      1            5.325 /_  -29.8 =     4.6229 +j    -2.643
820      0            5.325 /_  150.2 =    -4.6229 +j     2.643

ELEMENT = "Load.d820_822ra"
822      1           5.3414 /_  -29.8 =     4.6369 +j   -2.6514
822      0           5.3414 /_  150.2 =    -4.6369 +j    2.6514

ELEMENT = "Load.d816_824sb"
816      2          0.10814 /_ -114.3 =  -0.044438 +j -0.098583
816      3          0.10814 /_   65.7 =   0.044438 +j  0.098583

ELEMENT = "Load.d816_824rb"
824      2          0.10814 /_ -114.5 =   -0.04482 +j  -0.09841
824      3          0.10814 /_   65.5 =    0.04482 +j   0.09841

ELEMENT = "Load.d824_826sb"
824      2           1.5554 /_ -149.5 =    -1.3404 +j  -0.78902
824      0           1.5554 /_   30.5 =     1.3404 +j   0.78902

ELEMENT = "Load.d824_826rb"
826      2           1.5554 /_ -149.5 =    -1.3404 +j  -0.78901
826      0           1.5554 /_   30.5 =     1.3404 +j   0.78901

ELEMENT = "Load.d824_828sc"
824      3          0.15375 /_   91.2 =  -0.0031628 +j   0.15371
824      0          0.15375 /_  -88.8 =  0.0031628 +j  -0.15371

ELEMENT = "Load.d824_828rc"
828      3          0.15385 /_   91.2 =  -0.0031111 +j   0.15382
828      0          0.15385 /_  -88.8 =  0.0031111 +j  -0.15382

ELEMENT = "Load.d828_830sa"
828      1          0.26275 /_  -25.6 =    0.23693 +j  -0.11358
828      0          0.26275 /_  154.4 =   -0.23693 +j   0.11358

ELEMENT = "Load.d828_830ra"
830      1          0.26747 /_  -25.9 =    0.24067 +j   -0.1167
830      0          0.26747 /_  154.1 =   -0.24067 +j    0.1167

ELEMENT = "Load.d854_856sb"
854      2          0.15574 /_ -150.0 =   -0.13486 +j -0.077908
854      0          0.15574 /_   30.0 =    0.13486 +j  0.077908

ELEMENT = "Load.d854_856rb"
856      2          0.15576 /_ -150.0 =   -0.13488 +j -0.077899
856      0          0.15576 /_   30.0 =    0.13488 +j  0.077899

ELEMENT = "Load.d832_858sa"
832      1         0.091566 /_  -26.4 =   0.082041 +j -0.040663
832      0         0.091566 /_  153.6 =  -0.082041 +j  0.040663

ELEMENT = "Load.d832_858ra"
858      1         0.091362 /_  -26.4 =   0.081816 +j -0.040658
858      0         0.091362 /_  153.6 =  -0.081816 +j  0.040658

ELEMENT = "Load.d832_858sb"
832      2          0.02685 /_ -150.8 =  -0.023434 +j -0.013106
832      0          0.02685 /_   29.2 =   0.023434 +j  0.013106

ELEMENT = "Load.d832_858rb"
858      2          0.02679 /_ -150.9 =  -0.023403 +j -0.013039
858      0          0.02679 /_   29.1 =   0.023403 +j  0.013039

ELEMENT = "Load.d832_858sc"
832      3         0.080586 /_   89.7 =  0.00037106 +j  0.080585
832      0         0.080586 /_  -90.3 =  -0.00037106 +j -0.080585

ELEMENT = "Load.d832_858rc"
858      3         0.080416 /_   89.6 =  0.00052318 +j  0.080415
858      0         0.080416 /_  -90.4 =  -0.00052318 +j -0.080415

ELEMENT = "Load.d858_864sb"
858      1         0.075158 /_  -29.8 =   0.065226 +j -0.037341
858      0         0.075158 /_  150.2 =  -0.065226 +j  0.037341

ELEMENT = "Load.d858_864rb"
864      1         0.075159 /_  -29.8 =   0.065226 +j -0.037342
864      0         0.075159 /_  150.2 =  -0.065226 +j  0.037342

ELEMENT = "Load.d858_834sa"
858      1         0.086373 /_   -0.4 =   0.086371 +j -0.00053424
858      2         0.086373 /_  179.6 =  -0.086371 +j 0.00053424

ELEMENT = "Load.d858_834ra"
834      1         0.086582 /_   -0.4 =   0.086579 +j -0.00067324
834      2         0.086582 /_  179.6 =  -0.086579 +j 0.00067324

ELEMENT = "Load.d858_834sb"
858      2          0.33107 /_ -122.1 =   -0.17604 +j  -0.28039
858      3          0.33107 /_   57.9 =    0.17604 +j   0.28039

ELEMENT = "Load.d858_834rb"
834      2          0.33188 /_ -122.2 =   -0.17704 +j  -0.28071
834      3          0.33188 /_   57.8 =    0.17704 +j   0.28071

ELEMENT = "Load.d858_834sc"
858      3          0.28747 /_  118.2 =   -0.13582 +j   0.25336
858      1          0.28747 /_  -61.8 =    0.13582 +j  -0.25336

ELEMENT = "Load.d858_834rc"
834      3          0.28828 /_  118.1 =   -0.13574 +j   0.25432
834      1          0.28828 /_  -61.9 =    0.13574 +j  -0.25432

ELEMENT = "Load.d834_860sa"
834      1          0.37257 /_   -0.4 =    0.37256 +j -0.002897
834      2          0.37257 /_  179.6 =   -0.37256 +j  0.002897

ELEMENT = "Load.d834_860ra"
860      1          0.37243 /_   -0.4 =    0.37241 +j -0.0028728
860      2          0.37243 /_  179.6 =   -0.37241 +j 0.0028728

ELEMENT = "Load.d834_860sb"
834      2          0.46185 /_ -120.7 =   -0.23601 +j  -0.39699
834      3          0.46185 /_   59.3 =    0.23601 +j   0.39699

ELEMENT = "Load.d834_860rb"
860      2          0.46168 /_ -120.7 =   -0.23593 +j  -0.39684
860      3          0.46168 /_   59.3 =    0.23593 +j   0.39684

ELEMENT = "Load.d834_860sc"
834      3           2.5398 /_  119.8 =    -1.2633 +j    2.2034
834      1           2.5398 /_  -60.2 =     1.2633 +j   -2.2034

ELEMENT = "Load.d834_860rc"
860      3           2.5387 /_  119.8 =    -1.2627 +j    2.2024
860      1           2.5387 /_  -60.2 =     1.2627 +j   -2.2024

ELEMENT = "Load.d860_836sa"
860      1          0.64961 /_   -0.4 =    0.64959 +j -0.0050109
860      2          0.64961 /_  179.6 =   -0.64959 +j 0.0050109

ELEMENT = "Load.d860_836ra"
836      1          0.64978 /_   -0.4 =    0.64976 +j -0.005034
836      2          0.64978 /_  179.6 =   -0.64976 +j  0.005034

ELEMENT = "Load.d860_836sb"
860      2          0.22775 /_ -125.1 =   -0.13106 +j  -0.18626
860      3          0.22775 /_   54.9 =    0.13106 +j   0.18626

ELEMENT = "Load.d860_836rb"
836      2          0.22781 /_ -125.1 =   -0.13108 +j  -0.18632
836      3          0.22781 /_   54.9 =    0.13108 +j   0.18632

ELEMENT = "Load.d860_836sc"
860      3          0.92614 /_  118.7 =   -0.44542 +j   0.81199
860      1          0.92614 /_  -61.3 =    0.44542 +j  -0.81199

ELEMENT = "Load.d860_836rc"
836      3           0.9263 /_  118.7 =   -0.44551 +j   0.81214
836      1           0.9263 /_  -61.3 =    0.44551 +j  -0.81214

ELEMENT = "Load.d836_840sa"
836      1          0.40411 /_   -0.4 =     0.4041 +j -0.0031307
836      2          0.40411 /_  179.6 =    -0.4041 +j 0.0031307

ELEMENT = "Load.d836_840ra"
840      1          0.40411 /_   -0.4 =     0.4041 +j -0.0031313
840      2          0.40411 /_  179.6 =    -0.4041 +j 0.0031313

ELEMENT = "Load.d836_840sb"
836      2          0.49391 /_ -120.7 =   -0.25238 +j  -0.42456
836      3          0.49391 /_   59.3 =    0.25238 +j   0.42456

ELEMENT = "Load.d836_840rb"
840      2          0.49391 /_ -120.7 =   -0.25237 +j  -0.42456
840      3          0.49391 /_   59.3 =    0.25237 +j   0.42456

ELEMENT = "Load.d862_838sb"
862      2           1.0572 /_ -151.0 =   -0.92452 +j  -0.51273
862      0           1.0572 /_   29.0 =    0.92452 +j   0.51273

ELEMENT = "Load.d862_838rb"
838      2           1.0573 /_ -151.0 =   -0.92467 +j  -0.51278
838      0           1.0573 /_   29.0 =    0.92467 +j   0.51278

ELEMENT = "Load.d842_844sa"
842      1          0.34697 /_  -32.4 =     0.2931 +j  -0.18569
842      0          0.34697 /_  147.6 =    -0.2931 +j   0.18569

ELEMENT = "Load.d842_844ra"
844      1          0.34704 /_  -32.4 =    0.29308 +j  -0.18585
844      0          0.34704 /_  147.6 =   -0.29308 +j   0.18585

ELEMENT = "Load.d844_846sb"
844      2          0.93609 /_ -150.1 =   -0.81143 +j  -0.46675
844      0          0.93609 /_   29.9 =    0.81143 +j   0.46675

ELEMENT = "Load.d844_846rb"
846      2          0.93611 /_ -150.1 =   -0.81182 +j   -0.4661
846      0          0.93611 /_   29.9 =    0.81182 +j    0.4661

ELEMENT = "Load.d844_846sc"
844      3          0.76982 /_   87.2 =    0.03735 +j   0.76891
844      0          0.76982 /_  -92.8 =   -0.03735 +j  -0.76891

ELEMENT = "Load.d844_846rc"
846      3          0.76961 /_   87.2 =   0.038011 +j   0.76867
846      0          0.76961 /_  -92.8 =  -0.038011 +j  -0.76867

ELEMENT = "Load.d846_848sb"
846      2          0.86064 /_ -150.1 =   -0.74576 +j  -0.42957
846      0          0.86064 /_   29.9 =    0.74576 +j   0.42957

ELEMENT = "Load.d846_848rb"
848      2          0.86061 /_ -150.1 =   -0.74579 +j  -0.42948
848      0          0.86061 /_   29.9 =    0.74579 +j   0.42948

